tools/germany_pcm_case_related/raw_sources/osm_europe_grid/buses.csv
bus_id,voltage,dc,symbol,under_construction,tags,x,y,country,geometry
relation/10056249-132,132,f,Substation,f,relation/10056249,10.30741696,64.1486047,NO,POINT (10.30741696 64.1486047)
relation/10056251-132,132,f,Substation,f,relation/10056251,10.41166597,64.14826284,NO,POINT (10.41166597 64.14826284)
relation/10077392-132,132,f,Substation,f,relation/10077392,5.59051577,60.87439076,NO,POINT (5.59051577 60.87439076)
relation/10086891-300,300,f,Substation,f,relation/10086891,5.975945,60.9262513,NO,POINT (5.975945 60.9262513)
relation/10086892-132,132,f,Substation,f,relation/10086892,5.70323609,60.9607834,NO,POINT (5.70323609 60.9607834)
relation/10104222-420,420,f,Substation,f,relation/10104222,6.94572226,62.84254153,NO,POINT (6.94572226 62.84254153)
relation/10153505-132,132,f,Substation,f,relation/10153505,12.96081909,59.38824981,SE,POINT (12.96081909 59.38824981)
relation/10153505-400,400,f,Substation,f,relation/10153505,12.96120756,59.38843251,SE,POINT (12.96120756 59.38843251)
relation/10175479-132,132,f,Substation,f,relation/10175479,6.4536106,58.29494282,NO,POINT (6.4536106 58.29494282)
relation/10175479-300,300,f,Substation,f,relation/10175479,6.45395258,58.29514278,NO,POINT (6.45395258 58.29514278)
relation/10213675-132,132,f,Substation,f,relation/10213675,10.47542642,45.65123116,IT,POINT (10.47542642 45.65123116)
relation/10220813-420,420,f,Substation,f,relation/10220813,7.14464134,60.4992759,NO,POINT (7.14464134 60.4992759)
relation/10295969-400,400,f,Substation,f,relation/10295969,1.93506053,41.76692034,ES,POINT (1.93506053 41.76692034)
relation/10308957-132,132,f,Substation,f,relation/10308957,10.72059958,59.95797311,NO,POINT (10.72059958 59.95797311)
relation/10308957-300,300,f,Substation,f,relation/10308957,10.72098233,59.95816205,NO,POINT (10.72098233 59.95816205)
relation/10327289-300,300,f,Substation,f,relation/10327289,6.55574855,60.12249521,NO,POINT (6.55574855 60.12249521)
relation/10336704-132,132,f,Substation,f,relation/10336704,10.46962961,59.86423134,NO,POINT (10.46962961 59.86423134)
relation/10355948-132,132,f,Substation,f,relation/10355948,10.40321563,59.60794937,NO,POINT (10.40321563 59.60794937)
relation/10355950-132,132,f,Substation,f,relation/10355950,10.27039734,59.56318324,NO,POINT (10.27039734 59.56318324)
relation/10377509-132,132,f,Substation,f,relation/10377509,-3.05101835,55.03277507,GB,POINT (-3.05101835 55.03277507)
relation/10377509-400,400,f,Substation,f,relation/10377509,-3.05075259,55.03299641,GB,POINT (-3.05075259 55.03299641)
relation/10381724-132,132,f,Substation,f,relation/10381724,10.32825529,59.47883571,NO,POINT (10.32825529 59.47883571)
relation/10381726-132,132,f,Substation,f,relation/10381726,10.31232843,59.47123277,NO,POINT (10.31232843 59.47123277)
relation/10384523-132,132,f,Substation,f,relation/10384523,10.51304589,59.31281936,NO,POINT (10.51304589 59.31281936)
relation/10386410-132,132,f,Substation,f,relation/10386410,10.43065804,59.28360028,NO,POINT (10.43065804 59.28360028)
relation/10386982-132,132,f,Substation,f,relation/10386982,8.7334822,62.64330221,NO,POINT (8.7334822 62.64330221)
relation/10431096-132,132,f,Substation,f,relation/10431096,11.78353649,57.72497191,SE,POINT (11.78353649 57.72497191)
relation/10465157-132,132,f,Substation,f,relation/10465157,12.90301041,56.66429255,SE,POINT (12.90301041 56.66429255)
relation/10465651-132,132,f,Substation,f,relation/10465651,12.94041554,56.64377188,SE,POINT (12.94041554 56.64377188)
relation/10547156-300,300,f,Substation,f,relation/10547156,7.9390625,59.46320825,NO,POINT (7.9390625 59.46320825)
relation/10582233-132,132,f,Substation,f,relation/10582233,9.65748362,59.17559381,NO,POINT (9.65748362 59.17559381)
relation/10604779-132,132,f,Substation,f,relation/10604779,12.01347847,57.74856833,SE,POINT (12.01347847 57.74856833)
relation/10629005,300,t,Substation,f,relation/10629005,15.8541784059845,56.76732184567534,SE,POINT (15.8541784059845 56.76732184567534)
relation/10629005-400,400,f,Substation,f,relation/10629005,15.85417841,56.76732185,SE,POINT (15.85417841 56.76732185)
relation/10662040-150,150,f,Substation,f,relation/10662040,13.26018142,42.34945776,IT,POINT (13.26018142 42.34945776)
relation/10695345,400,t,Substation,f,relation/10695345,1.34653130045137,51.31010054490359,GB,POINT (1.34653130045137 51.31010054490359)
relation/10695345-132,132,f,Substation,f,relation/10695345,1.34639802,51.30999471,GB,POINT (1.34639802 51.30999471)
relation/10695345-400,400,f,Substation,f,relation/10695345,1.34666458,51.31020638,GB,POINT (1.34666458 51.31020638)
relation/10717041-150,150,f,Substation,f,relation/10717041,12.58292383,41.84546056,IT,POINT (12.58292383 41.84546056)
relation/10876752-132,132,f,Substation,f,relation/10876752,6.0686082,59.02276579,NO,POINT (6.0686082 59.02276579)
relation/10925187-132,132,f,Substation,f,way/785476559,-1.49544134,53.77759196,GB,POINT (-1.49544134 53.77759196)
relation/10925187-275,275,f,Substation,f,relation/10925187,-1.49517472,53.77780995,GB,POINT (-1.49517472 53.77780995)
relation/10983935-132,132,f,Substation,f,relation/10983935,-1.15764118,41.59186852,ES,POINT (-1.15764118 41.59186852)
relation/11036958-300,300,f,Substation,f,relation/11036958,6.67072995,59.48447803,NO,POINT (6.67072995 59.48447803)
relation/11036958-420,420,f,Substation,f,relation/11036958,6.67108467,59.48467757,NO,POINT (6.67108467 59.48467757)
relation/11051275-132,132,f,Substation,f,relation/11051275,-2.67059652,54.29754286,GB,POINT (-2.67059652 54.29754286)
relation/11051275-400,400,f,Substation,f,relation/11051275,-2.67033299,54.29776336,GB,POINT (-2.67033299 54.29776336)
relation/11087516-132,132,f,Substation,f,relation/11087516,12.67796281,57.51627018,SE,POINT (12.67796281 57.51627018)
relation/11097406-132,132,f,Substation,f,relation/11097406,11.73468881,58.83743491,SE,POINT (11.73468881 58.83743491)
relation/11097406-420,420,f,Substation,f,relation/11097406,11.7351254,58.83748987,SE,POINT (11.7351254 58.83748987)
relation/11151227-150,150,f,Substation,f,relation/11151227,12.19575514,41.92846199,IT,POINT (12.19575514 41.92846199)
relation/11278540-225,225,f,Substation,f,relation/11278540,4.71480804,44.32939109,FR,POINT (4.71480804 44.32939109)
relation/11278540-400,400,f,Substation,f,relation/11278540,4.7150552,44.32959535,FR,POINT (4.7150552 44.32959535)
relation/11334274-400,400,f,Substation,f,relation/11334274,12.26369106,57.9156257,SE,POINT (12.26369106 57.9156257)
relation/11372549-225,225,f,Substation,f,relation/11372549,3.06545759,50.62087834,FR,POINT (3.06545759 50.62087834)
relation/11497016-132,132,f,Substation,f,relation/11497016,12.23761543,58.28152345,SE,POINT (12.23761543 58.28152345)
relation/11512349-300,300,f,Substation,f,relation/11512349,5.98676228,59.84621228,NO,POINT (5.98676228 59.84621228)
relation/11520073-132,132,f,Substation,f,relation/11520073,5.30253548,61.77141408,NO,POINT (5.30253548 61.77141408)
relation/11520250-132,132,f,Substation,f,relation/11520250,5.78975283,61.84391056,NO,POINT (5.78975283 61.84391056)
relation/11543333-132,132,f,Substation,f,relation/11543333,-1.55476643,54.7052802,GB,POINT (-1.55476643 54.7052802)
relation/11543333-400,400,f,Substation,f,relation/11543333,-1.55449468,54.70549839,GB,POINT (-1.55449468 54.70549839)
relation/11547182-132,132,f,Substation,f,relation/11547182,10.80779681,59.35857065,NO,POINT (10.80779681 59.35857065)
relation/11556053-132,132,f,Substation,f,relation/11556053,5.76735798,58.64153902,NO,POINT (5.76735798 58.64153902)
relation/11567744-132,132,f,Substation,f,relation/11567744,9.68677997,59.05897756,NO,POINT (9.68677997 59.05897756)
relation/11568632-132,132,f,Substation,f,relation/11568631,9.47651579,59.12877615,NO,POINT (9.47651579 59.12877615)
relation/11568632-420,420,f,Substation,f,relation/11568632,9.47688263,59.12896837,NO,POINT (9.47688263 59.12896837)
relation/11571309-132,132,f,Substation,f,relation/11571309,10.09076334,64.07082484,NO,POINT (10.09076334 64.07082484)
relation/11601413-132,132,f,Substation,f,relation/11601413,10.40354965,59.14202993,NO,POINT (10.40354965 59.14202993)
relation/11601416-132,132,f,Substation,f,relation/11601416,10.39977977,59.21793833,NO,POINT (10.39977977 59.21793833)
relation/11601417-132,132,f,Substation,f,relation/11601417,10.28610136,59.22995121,NO,POINT (10.28610136 59.22995121)
relation/11636421-132,132,f,Substation,f,relation/11636421,14.16590264,66.33674185,NO,POINT (14.16590264 66.33674185)
relation/11749977-132,132,f,Substation,f,relation/11749977,0.82584643,52.82896568,GB,POINT (0.82584643 52.82896568)
relation/11781403-132,132,f,Substation,f,relation/11781403,7.82674458,61.31260775,NO,POINT (7.82674458 61.31260775)
relation/11920290-132,132,f,Substation,f,relation/11920290,-1.35921048,41.49164711,ES,POINT (-1.35921048 41.49164711)
relation/11964241-132,132,f,Substation,f,relation/11964241,12.21445943,58.29410864,SE,POINT (12.21445943 58.29410864)
relation/11964241-400,400,f,Substation,f,relation/11964241,12.21483209,58.29429337,SE,POINT (12.21483209 58.29429337)
relation/11971282-400,400,f,Substation,f,relation/11971282,16.45591501,62.41934913,SE,POINT (16.45591501 62.41934913)
relation/11981383,450,t,Substation,f,relation/11981383,6.8661568391267895,58.28250865848761,NO,POINT (6.8661568391267895 58.28250865848761)
relation/12254347-132,132,f,Substation,f,relation/12254347,12.97765128,65.32406939,NO,POINT (12.97765128 65.32406939)
relation/12274653-420,420,f,Substation,f,relation/12274653,6.60224008,59.56033427,NO,POINT (6.60224008 59.56033427)
relation/12277754-300,300,f,Substation,f,relation/12277754,8.97150096,60.70524497,NO,POINT (8.97150096 60.70524497)
relation/12543034-132,132,f,Substation,f,relation/12543034,-3.2994374,51.57432775,GB,POINT (-3.2994374 51.57432775)
relation/12543034-275,275,f,Substation,f,relation/12543034,-3.29919116,51.57454936,GB,POINT (-3.29919116 51.57454936)
relation/12567833-132,132,f,Substation,f,relation/12567833,6.92446997,46.36454885,CH,POINT (6.92446997 46.36454885)
relation/12606773-220,220,f,Substation,f,relation/12606773,16.66843374,62.94744562,SE,POINT (16.66843374 62.94744562)
relation/12649621-150,150,f,Substation,f,relation/12649621,12.82359344,41.57944215,IT,POINT (12.82359344 41.57944215)
relation/12677642-132,132,f,Substation,f,relation/12677642,-3.89822605,51.62505459,GB,POINT (-3.89822605 51.62505459)
relation/12678806-132,132,f,Substation,f,relation/12678806,6.08173343,59.00297675,NO,POINT (6.08173343 59.00297675)
relation/12678808-132,132,f,Substation,f,relation/12678808,6.12159259,58.89769032,NO,POINT (6.12159259 58.89769032)
relation/12688327-132,132,f,Substation,f,relation/12688327,-5.03048771,51.68145612,GB,POINT (-5.03048771 51.68145612)
relation/12691320-132,132,f,Substation,f,relation/12691320,-2.56584663,51.44913166,GB,POINT (-2.56584663 51.44913166)
relation/12692055-132,132,f,Substation,f,relation/12692055,-2.2423845,53.02933911,GB,POINT (-2.2423845 53.02933911)
relation/12692056-132,132,f,Substation,f,relation/12692056,-2.17679773,53.07999975,GB,POINT (-2.17679773 53.07999975)
relation/12698636-132,132,f,Substation,f,relation/12698636,-2.16853904,53.01283743,GB,POINT (-2.16853904 53.01283743)
relation/12796302-132,132,f,Substation,f,relation/12796302,5.09381598,60.35021212,NO,POINT (5.09381598 60.35021212)
relation/12832053,515,t,Substation,f,relation/12832053,6.654928160547617,59.53019486972904,NO,POINT (6.654928160547617 59.530194869729044)
relation/12832053-420,420,f,Substation,f,relation/12832052,6.65477856,59.5298075,NO,POINT (6.65477856 59.5298075)
relation/12841365-132,132,f,Substation,f,relation/12841365,-1.40059855,52.90529347,GB,POINT (-1.40059855 52.90529347)
relation/12884169-132,132,f,Substation,f,relation/12884169,14.2073319,42.44042809,IT,POINT (14.2073319 42.44042809)
relation/12884169-150,150,f,Substation,f,way/157811788,14.20760197,42.44060866,IT,POINT (14.20760197 42.44060866)
relation/12969006-300,300,f,Substation,f,relation/12969006,5.55158955,59.27358607,NO,POINT (5.55158955 59.27358607)
relation/13009239-132,132,f,Substation,f,relation/13009239,20.35839032,69.31524616,NO,POINT (20.35839032 69.31524616)
relation/13020240-150,150,f,Substation,f,way/436354064,12.47808336,41.86804746,IT,POINT (12.47808336 41.86804746)
relation/13020240-220,220,f,Substation,f,relation/13020240,12.47834558,41.86823275,IT,POINT (12.47834558 41.86823275)
relation/13070717-150,150,f,Substation,f,relation/13070717,14.01704192,42.26938269,IT,POINT (14.01704192 42.26938269)
relation/13110367-400,400,f,Substation,f,relation/13110367,-4.98948174,51.68238463,GB,POINT (-4.98948174 51.68238463)
relation/13155548-132,132,f,Substation,f,relation/13155548,8.59198803,58.368988,NO,POINT (8.59198803 58.368988)
relation/13168284-132,132,f,Substation,f,relation/13168284,11.10306287,42.77505738,IT,POINT (11.10306287 42.77505738)
relation/13260100-225,225,f,Substation,f,relation/13260100,0.14961434,49.47462362,FR,POINT (0.14961434 49.47462362)
relation/13260100-400,400,f,Substation,f,way/118244194,0.14986633,49.47483792,FR,POINT (0.14986633 49.47483792)
relation/13260224-225,225,f,Substation,f,relation/13260224,2.27935431,51.0122437,FR,POINT (2.27935431 51.0122437)
relation/13282827-132,132,f,Substation,f,relation/13282827,12.09815031,57.93595099,SE,POINT (12.09815031 57.93595099)
relation/13284557-132,132,f,Substation,f,relation/13284557,9.53225362,59.20622381,NO,POINT (9.53225362 59.20622381)
relation/13284559-132,132,f,Substation,f,relation/13284559,9.49738203,59.12677039,NO,POINT (9.49738203 59.12677039)
relation/13284560-132,132,f,Substation,f,relation/13284560,9.05718053,59.14082132,NO,POINT (9.05718053 59.14082132)
relation/13307505-132,132,f,Substation,f,relation/13307505,6.38778678,62.59868143,NO,POINT (6.38778678 62.59868143)
relation/13383233-132,132,f,Substation,f,relation/13383233,12.02883688,57.78427955,SE,POINT (12.02883688 57.78427955)
relation/13405042-132,132,f,Substation,f,relation/13405042,6.48198626,61.57642897,NO,POINT (6.48198626 61.57642897)
relation/13418254-132,132,f,Substation,f,relation/13418254,5.05790362,60.4961187,NO,POINT (5.05790362 60.4961187)
relation/13418255-132,132,f,Substation,f,relation/13418255,5.077972,60.48850552,NO,POINT (5.077972 60.48850552)
relation/13447790-132,132,f,Substation,f,relation/13447790,6.01596572,61.44616752,NO,POINT (6.01596572 61.44616752)
relation/13447790-420,420,f,Substation,f,relation/13447791,6.01633754,61.44636898,NO,POINT (6.01633754 61.44636898)
relation/13532879-132,132,f,Substation,f,relation/13532879,11.88286236,57.70946296,SE,POINT (11.88286236 57.70946296)
relation/13534535-132,132,f,Substation,f,relation/13534535,11.68696835,63.02986948,NO,POINT (11.68696835 63.02986948)
relation/13534535-420,420,f,Substation,f,relation/8527323,11.68739604,63.03005607,NO,POINT (11.68739604 63.03005607)
relation/13565861-132,132,f,Substation,f,relation/13565861,13.41705967,57.15893679,SE,POINT (13.41705967 57.15893679)
relation/13575335-132,132,f,Substation,f,relation/13575335,15.27241601,59.11733945,SE,POINT (15.27241601 59.11733945)
relation/13578433-132,132,f,Substation,f,relation/13578433,-2.34032984,53.55122748,GB,POINT (-2.34032984 53.55122748)
relation/13585827-132,132,f,Substation,f,relation/13585827,12.87467087,59.11855355,SE,POINT (12.87467087 59.11855355)
relation/13588510-132,132,f,Substation,f,relation/13588510,13.49817173,59.52393816,SE,POINT (13.49817173 59.52393816)
relation/13588511-132,132,f,Substation,f,relation/13588511,13.49800742,59.37393457,SE,POINT (13.49800742 59.37393457)
relation/13588514-132,132,f,Substation,f,relation/13588514,13.43765387,59.34806956,SE,POINT (13.43765387 59.34806956)
relation/13592679-132,132,f,Substation,f,relation/13592679,14.23619025,59.31591452,SE,POINT (14.23619025 59.31591452)
relation/13595709-132,132,f,Substation,f,relation/13595709,14.22313631,59.17577629,SE,POINT (14.22313631 59.17577629)
relation/13704797-132,132,f,Substation,f,relation/13704797,11.9677932,57.58767643,SE,POINT (11.9677932 57.58767643)
relation/13764183-132,132,f,Substation,f,relation/13764183,11.8719461,57.72706181,SE,POINT (11.8719461 57.72706181)
relation/1377432-220,220,f,Substation,f,relation/1377432,10.88155704,45.8827914,IT,POINT (10.88155704 45.8827914)
relation/13794556-132,132,f,Substation,f,relation/13794556,7.17909395,62.74417324,NO,POINT (7.17909395 62.74417324)
relation/1382753-132,132,f,Substation,f,relation/1382753,11.11555599,46.0788647,IT,POINT (11.11555599 46.0788647)
relation/1384225-132,132,f,Substation,f,relation/1384225,11.04048333,45.91365862,IT,POINT (11.04048333 45.91365862)
relation/13851427-132,132,f,Substation,f,relation/13851427,7.71160978,61.23637539,NO,POINT (7.71160978 61.23637539)
relation/13876394-132,132,f,Substation,f,relation/13876394,11.53344745,60.89673432,NO,POINT (11.53344745 60.89673432)
relation/13889505-220,220,f,Substation,f,way/245334700,17.10306294,63.1763351,SE,POINT (17.10306294 63.1763351)
relation/13889505-400,400,f,Substation,f,relation/13889505,17.10352552,63.17650588,SE,POINT (17.10352552 63.17650588)
relation/13908551-150,150,f,Substation,f,relation/13908551,13.9468204,42.22609418,IT,POINT (13.9468204 42.22609418)
relation/13954089-150,150,f,Substation,f,relation/13954089,13.82350822,42.17894564,IT,POINT (13.82350822 42.17894564)
relation/13989591-300,300,f,Substation,f,relation/13989591,5.31602259,59.31760884,NO,POINT (5.31602259 59.31760884)
relation/14018338-132,132,f,Substation,f,relation/14018338,13.56171378,66.64539198,NO,POINT (13.56171378 66.64539198)
relation/14071297-132,132,f,Substation,f,relation/14071297,10.21636218,59.11812516,NO,POINT (10.21636218 59.11812516)
relation/14071300-132,132,f,Substation,f,relation/14071300,10.16142462,59.10774226,NO,POINT (10.16142462 59.10774226)
relation/14071303-132,132,f,Substation,f,relation/14071303,10.20001044,59.14381051,NO,POINT (10.20001044 59.14381051)
relation/14071305-132,132,f,Substation,f,relation/14071305,10.24146756,59.10922112,NO,POINT (10.24146756 59.10922112)
relation/14071307-132,132,f,Substation,f,relation/14071307,10.25022677,59.14442613,NO,POINT (10.25022677 59.14442613)
relation/14072633-132,132,f,Substation,f,relation/14072633,7.83495947,59.20449002,NO,POINT (7.83495947 59.20449002)
relation/14185365-132,132,f,Substation,f,relation/14185365,10.19673826,45.6600468,IT,POINT (10.19673826 45.6600468)
relation/14274742-132,132,f,Substation,f,relation/14274742,10.49250686,45.64669527,IT,POINT (10.49250686 45.64669527)
relation/14300036-132,132,f,Substation,f,relation/14300036,10.81532438,43.15563454,IT,POINT (10.81532438 43.15563454)
relation/14302317-132,132,f,Substation,f,relation/14302317,10.22432757,45.56188667,IT,POINT (10.22432757 45.56188667)
relation/14303137-132,132,f,Substation,f,relation/14303137,13.44912434,45.94438845,IT,POINT (13.44912434 45.94438845)
relation/14339814-132,132,f,Substation,f,relation/14339814,8.51951538,58.94886354,NO,POINT (8.51951538 58.94886354)
relation/14347510-132,132,f,Substation,f,relation/14347510,9.86219101,59.3136482,NO,POINT (9.86219101 59.3136482)
relation/14347513-132,132,f,Substation,f,relation/14347513,9.66121408,59.30748672,NO,POINT (9.66121408 59.30748672)
relation/14465930-132,132,f,Substation,f,relation/14465930,5.72024782,58.84423514,NO,POINT (5.72024782 58.84423514)
relation/14543183-132,132,f,Substation,f,relation/14543183,7.80976419,58.58250255,NO,POINT (7.80976419 58.58250255)
relation/14758048-132,132,f,Substation,f,relation/14758048,10.44488818,59.8334383,NO,POINT (10.44488818 59.8334383)
relation/14887977-132,132,f,Substation,f,relation/14887977,10.15711294,64.01305298,NO,POINT (10.15711294 64.01305298)
relation/14921826-132,132,f,Substation,f,relation/14921826,-2.96218455,54.94257578,GB,POINT (-2.96218455 54.94257578)
relation/14921826-275,275,f,Substation,f,relation/14921826,-2.9618497,54.94244332,GB,POINT (-2.9618497 54.94244332)
relation/14921826-400,400,f,Substation,f,relation/14921826,-2.96181784,54.94267542,GB,POINT (-2.96181784 54.94267542)
relation/14939275,450,t,Substation,f,relation/14939275,14.840064437359892,56.15303706800383,SE,POINT (14.840064437359892 56.15303706800383)
relation/14939275-400,400,f,Substation,f,relation/14939275,14.84006444,56.15303707,SE,POINT (14.84006444 56.15303707)
relation/15002239-132,132,f,Substation,f,relation/15002239,12.37453579,58.35879532,SE,POINT (12.37453579 58.35879532)
relation/15002240-132,132,f,Substation,f,relation/15002240,12.33594448,58.36466448,SE,POINT (12.33594448 58.36466448)
relation/15002243-132,132,f,Substation,f,relation/15002243,12.30737194,58.34273718,SE,POINT (12.30737194 58.34273718)
relation/15013256-132,132,f,Substation,f,relation/15013256,12.20556489,57.2383864,SE,POINT (12.20556489 57.2383864)
relation/15016338-132,132,f,Substation,f,relation/15016338,12.52328355,56.90010089,SE,POINT (12.52328355 56.90010089)
relation/15027173-132,132,f,Substation,f,relation/15027173,12.27777214,58.27641282,SE,POINT (12.27777214 58.27641282)
relation/15036692-132,132,f,Substation,f,relation/15036692,13.17567149,58.4982138,SE,POINT (13.17567149 58.4982138)
relation/15045297-132,132,f,Substation,f,relation/15045297,12.50908831,57.9264639,SE,POINT (12.50908831 57.9264639)
relation/15045300-132,132,f,Substation,f,relation/15045300,12.50565685,57.9795034,SE,POINT (12.50565685 57.9795034)
relation/15045960-132,132,f,Substation,f,relation/15045960,12.13930053,57.73913002,SE,POINT (12.13930053 57.73913002)
relation/15047001-132,132,f,Substation,f,relation/15047001,12.03587744,57.73084941,SE,POINT (12.03587744 57.73084941)
relation/15048107-132,132,f,Substation,f,relation/15048107,11.94748773,57.64446978,SE,POINT (11.94748773 57.64446978)
relation/15058993-132,132,f,Substation,f,relation/15058993,12.91598028,57.71566081,SE,POINT (12.91598028 57.71566081)
relation/15070664-132,132,f,Substation,f,relation/15070664,11.98976708,57.43116911,SE,POINT (11.98976708 57.43116911)
relation/15070950-132,132,f,Substation,f,relation/15070950,12.17517056,57.23329047,SE,POINT (12.17517056 57.23329047)
relation/15071404-132,132,f,Substation,f,relation/15071404,12.30269264,57.12732094,SE,POINT (12.30269264 57.12732094)
relation/15074064-132,132,f,Substation,f,relation/15074064,12.3674876,57.04372299,SE,POINT (12.3674876 57.04372299)
relation/15074508-132,132,f,Substation,f,relation/15074508,12.60594888,56.86705094,SE,POINT (12.60594888 56.86705094)
relation/15074511-132,132,f,Substation,f,relation/15074511,12.46993652,56.91040079,SE,POINT (12.46993652 56.91040079)
relation/15075137-132,132,f,Substation,f,relation/15075137,12.78280923,56.6711497,SE,POINT (12.78280923 56.6711497)
relation/15080554-132,132,f,Substation,f,relation/15080554,13.22641582,56.99552471,SE,POINT (13.22641582 56.99552471)
relation/15091529-132,132,f,Substation,f,relation/15091529,13.10262704,56.5022499,SE,POINT (13.10262704 56.5022499)
relation/15092016-132,132,f,Substation,f,relation/15092016,13.34893562,56.50961946,SE,POINT (13.34893562 56.50961946)
relation/15094723-132,132,f,Substation,f,relation/15094723,12.59653074,56.18915111,SE,POINT (12.59653074 56.18915111)
relation/15097101-132,132,f,Substation,f,relation/15097101,12.72493833,56.06585984,SE,POINT (12.72493833 56.06585984)
relation/15098008-132,132,f,Substation,f,relation/15098008,12.73767998,56.01210418,SE,POINT (12.73767998 56.01210418)
relation/15102181-132,132,f,Substation,f,relation/15102181,13.87514331,56.9799327,SE,POINT (13.87514331 56.9799327)
relation/15257276-132,132,f,Substation,f,relation/15257276,13.84955963,57.19511917,SE,POINT (13.84955963 57.19511917)
relation/15267518-132,132,f,Substation,f,relation/15267518,13.53902964,58.16873215,SE,POINT (13.53902964 58.16873215)
relation/15267603-132,132,f,Substation,f,relation/15267603,12.68740301,59.04652221,SE,POINT (12.68740301 59.04652221)
relation/15347271-132,132,f,Substation,f,relation/15347271,29.6944983,69.37401071,NO,POINT (29.6944983 69.37401071)
relation/15389848-132,132,f,Substation,f,relation/15389848,8.8038234,63.52525995,NO,POINT (8.8038234 63.52525995)
relation/15389850-132,132,f,Substation,f,relation/15389850,8.95800605,63.57381937,NO,POINT (8.95800605 63.57381937)
relation/15436115-220,220,f,Substation,f,relation/15436115,28.41503938,64.5911602,FI,POINT (28.41503938 64.5911602)
relation/15654150-220,220,f,Substation,f,relation/15654150,14.84730531,62.46048882,SE,POINT (14.84730531 62.46048882)
relation/15657009-400,400,f,Substation,f,relation/15657009,14.67733075,62.4933842,SE,POINT (14.67733075 62.4933842)
relation/15657011-220,220,f,Substation,f,relation/15657007,14.62774915,62.48925717,SE,POINT (14.62774915 62.48925717)
relation/15657011-400,400,f,Substation,f,relation/15657007,14.62818681,62.48943528,SE,POINT (14.62818681 62.48943528)
relation/15715982-220,220,f,Substation,f,relation/15715982,-6.80652483,41.0436666,ES,POINT (-6.80652483 41.0436666)
relation/15715982-400,400,f,Substation,f,way/144327917,-6.80632931,41.04389548,ES,POINT (-6.80632931 41.04389548)
relation/15768153-132,132,f,Substation,f,relation/15768153,6.86912308,58.65502466,NO,POINT (6.86912308 58.65502466)
relation/15900216-220,220,f,Substation,f,relation/15900216,17.98318725,59.37832636,SE,POINT (17.98318725 59.37832636)
relation/15936634-132,132,f,Substation,f,relation/15936634,10.56833577,42.96656233,IT,POINT (10.56833577 42.96656233)
relation/16005161-132,132,f,Substation,f,relation/16005161,6.06898654,61.22055614,NO,POINT (6.06898654 61.22055614)
relation/1604500-225,225,f,Substation,f,relation/1604500,1.49387151,43.61639595,FR,POINT (1.49387151 43.61639595)
relation/16703882-132,132,f,Substation,f,relation/16703882,10.39937346,45.47243154,IT,POINT (10.39937346 45.47243154)
relation/16809528-220,220,f,Substation,f,relation/16809528,1.90228354,41.35531385,ES,POINT (1.90228354 41.35531385)
relation/16809528-400,400,f,Substation,f,relation/16809528,1.90250998,41.3555249,ES,POINT (1.90250998 41.3555249)
relation/17011862-132,132,f,Substation,f,relation/17011862,6.4666671,58.33315965,NO,POINT (6.4666671 58.33315965)
relation/17073815-150,150,f,Substation,f,relation/17073815,6.27272722,51.97282046,NL,POINT (6.27272722 51.97282046)
relation/17099135-300,300,f,Substation,f,relation/17099135,5.68017394,58.92626264,NO,POINT (5.68017394 58.92626264)
relation/17148268-220,220,f,Substation,f,relation/17148268,-5.6933227,39.80725935,ES,POINT (-5.6933227 39.80725935)
relation/17148268-400,400,f,Substation,f,relation/17148268,-5.69312627,39.80748631,ES,POINT (-5.69312627 39.80748631)
relation/17207906-132,132,f,Substation,f,relation/17207906,6.402059,60.34112439,NO,POINT (6.402059 60.34112439)
relation/17239840-132,132,f,Substation,f,relation/17239839,14.12954333,42.40351082,IT,POINT (14.12954333 42.40351082)
relation/17239840-150,150,f,Substation,f,relation/17239840,14.1294368,42.40337311,IT,POINT (14.1294368 42.40337311)
relation/17239840-380,380,f,Substation,f,relation/13844905,14.12977483,42.40331892,IT,POINT (14.12977483 42.40331892)
relation/17294958-220,220,f,Substation,f,relation/17294958,-6.47284882,41.30134453,PT,POINT (-6.47284882 41.30134453)
relation/17294973-150,150,f,Substation,f,relation/17294973,-8.8033741,37.93031276,PT,POINT (-8.8033741 37.93031276)
relation/17294973-400,400,f,Substation,f,relation/17294973,-8.80319209,37.93054576,PT,POINT (-8.80319209 37.93054576)
relation/17319555-220,220,f,Substation,f,relation/17319555,-0.45728437,39.14976406,ES,POINT (-0.45728437 39.14976406)
relation/17328947-225,225,f,Substation,f,relation/17328947,2.14785401,49.04991339,FR,POINT (2.14785401 49.04991339)
relation/17467354-380,380,f,Substation,f,relation/17467354,12.32688817,41.87724413,IT,POINT (12.32688817 41.87724413)
relation/17478333-132,132,f,Substation,f,relation/17478333,11.08613659,62.4287243,NO,POINT (11.08613659 62.4287243)
relation/17512687-132,132,f,Substation,f,relation/17512687,9.61701992,59.0824746,NO,POINT (9.61701992 59.0824746)
relation/17542315-132,132,f,Substation,f,relation/17542315,12.23121418,44.65838951,IT,POINT (12.23121418 44.65838951)
relation/17591073-220,220,f,Substation,f,relation/17591073,8.50191528,49.44494142,DE,POINT (8.50191528 49.44494142)
relation/17635661-132,132,f,Substation,f,relation/17635661,9.70546311,45.68506779,IT,POINT (9.70546311 45.68506779)
relation/17678185-132,132,f,Substation,f,relation/17678186,0.7390736,42.40310737,ES,POINT (0.7390736 42.40310737)
relation/17678185-220,220,f,Substation,f,relation/17678185,0.73929959,42.40332084,ES,POINT (0.73929959 42.40332084)
relation/17805735-220,220,f,Substation,f,relation/17805735,-4.49913524,41.99894826,ES,POINT (-4.49913524 41.99894826)
relation/17816995-132,132,f,Substation,f,relation/17816995,-5.47868975,38.91585055,ES,POINT (-5.47868975 38.91585055)
relation/17818396-132,132,f,Substation,f,relation/17818396,5.13108888,61.67204945,NO,POINT (5.13108888 61.67204945)
relation/17818399-132,132,f,Substation,f,relation/17818399,5.1926279,61.66676831,NO,POINT (5.1926279 61.66676831)
relation/17818400-132,132,f,Substation,f,relation/17818400,5.16804138,61.79574358,NO,POINT (5.16804138 61.79574358)
relation/17873353-225,225,f,Substation,f,relation/17873353,1.10515655,49.36867792,FR,POINT (1.10515655 49.36867792)
relation/17954174-132,132,f,Substation,f,relation/17954174,12.97865403,43.40455497,IT,POINT (12.97865403 43.40455497)
relation/18023873-150,150,f,Substation,f,relation/18023872,12.32206605,41.85208566,IT,POINT (12.32206605 41.85208566)
relation/18085709-400,400,f,Substation,f,relation/18085709,16.89178745,54.50134871,PL,POINT (16.89178745 54.50134871)
relation/18111284-132,132,f,Substation,f,relation/18111284,7.96649836,47.54148918,CH,POINT (7.96649836 47.54148918)
relation/18160532-400,400,f,Substation,f,relation/18160532,18.43975453,63.41003135,SE,POINT (18.43975453 63.41003135)
relation/18168060-132,132,f,Substation,f,relation/18168060,-5.94842976,36.87259813,ES,POINT (-5.94842976 36.87259813)
relation/18292370-132,132,f,Substation,f,relation/18292370,6.75331131,58.66999269,NO,POINT (6.75331131 58.66999269)
relation/18292370-420,420,f,Substation,f,relation/8890887,6.75369328,58.66981083,NO,POINT (6.75369328 58.66981083)
relation/18303428-132,132,f,Substation,f,relation/18303428,9.20792248,59.65778061,NO,POINT (9.20792248 59.65778061)
relation/18475537-132,132,f,Substation,f,relation/18475537,7.46613504,46.97947921,CH,POINT (7.46613504 46.97947921)
relation/18555173-132,132,f,Substation,f,relation/18555173,10.01690697,59.74445986,NO,POINT (10.01690697 59.74445986)
relation/18605478-132,132,f,Substation,f,relation/18605478,-3.19609823,51.76503841,GB,POINT (-3.19609823 51.76503841)
relation/18667238-132,132,f,Substation,f,relation/18667238,9.5432059,59.27287513,NO,POINT (9.5432059 59.27287513)
relation/18667238-300,300,f,Substation,f,relation/18667239,9.54352955,59.27271093,NO,POINT (9.54352955 59.27271093)
relation/18667238-420,420,f,Substation,f,relation/18667239,9.54364426,59.27293707,NO,POINT (9.54364426 59.27293707)
relation/18894378-150,150,f,Substation,f,relation/18894378,3.85511342,50.478846,BE,POINT (3.85511342 50.478846)
relation/19086315-132,132,f,Substation,f,relation/19086315,9.40284139,45.23857541,IT,POINT (9.40284139 45.23857541)
relation/19111779-150,150,f,Substation,f,relation/19111779,9.05067088,40.14204385,IT,POINT (9.05067088 40.14204385)
relation/19169705-132,132,f,Substation,f,relation/19169705,-2.89025839,54.03255657,GB,POINT (-2.89025839 54.03255657)
relation/19169705-400,400,f,Substation,f,relation/19169705,-2.8900297,54.03254542,GB,POINT (-2.8900297 54.03254542)
relation/19396462-132,132,f,Substation,f,relation/18995432,0.00945858,51.75863624,GB,POINT (0.00945858 51.75863624)
relation/19396462-400,400,f,Substation,f,relation/19396462,0.00972139,51.75885089,GB,POINT (0.00972139 51.75885089)
relation/19468471-132,132,f,Substation,f,relation/19468471,11.10488125,44.25955721,IT,POINT (11.10488125 44.25955721)
relation/19581815-132,132,f,Substation,f,relation/19581815,11.00396235,63.44811315,NO,POINT (11.00396235 63.44811315)
relation/19581815-300,300,f,Substation,f,relation/19581816,11.00439178,63.44830169,NO,POINT (11.00439178 63.44830169)
relation/19585241-220,220,f,Substation,f,relation/19585241,-6.35235866,41.37994522,PT,POINT (-6.35235866 41.37994522)
relation/19645437-400,400,f,Substation,f,relation/19645437,-8.77538756,40.12375362,PT,POINT (-8.77538756 40.12375362)
relation/19645523-220,220,f,Substation,f,relation/19645523,-8.45910828,41.0699276,PT,POINT (-8.45910828 41.0699276)
relation/19651625-220,220,f,Substation,f,relation/19651625,-8.19836082,40.34023221,PT,POINT (-8.19836082 40.34023221)
relation/19692297-150,150,f,Substation,f,relation/19692297,5.13178194,51.80153416,NL,POINT (5.13178194 51.80153416)
relation/19852774-132,132,f,Substation,f,relation/19852774,11.88648466,44.32703697,IT,POINT (11.88648466 44.32703697)
relation/19897532-132,132,f,Substation,f,relation/19897532,-2.97746741,51.547493,GB,POINT (-2.97746741 51.547493)
relation/19897532-275,275,f,Substation,f,relation/19897532,-2.97721976,51.54771395,GB,POINT (-2.97721976 51.54771395)
relation/19986815-220,220,f,Substation,f,relation/19986815,12.53696022,41.78401187,IT,POINT (12.53696022 41.78401187)
relation/20143465-220,220,f,Substation,f,relation/20143465,-2.57025793,39.86161183,ES,POINT (-2.57025793 39.86161183)
relation/20143572-220,220,f,Substation,f,relation/20143572,-8.15792127,42.39783314,ES,POINT (-8.15792127 42.39783314)
relation/20158427-132,132,f,Substation,f,relation/20158426,11.94813852,44.42088846,IT,POINT (11.94813852 44.42088846)
relation/2452471-132,132,f,Substation,f,relation/2452471,-3.8608551,56.00746517,GB,POINT (-3.8608551 56.00746517)
relation/2452471-275,275,f,Substation,f,relation/2452471,-3.86058799,56.00768827,GB,POINT (-3.86058799 56.00768827)
relation/2820883-132,132,f,Substation,f,way/415259902,10.98992214,45.75683657,IT,POINT (10.98992214 45.75683657)
relation/2880603-132,132,f,Substation,f,relation/2880603,11.60076822,45.25185474,IT,POINT (11.60076822 45.25185474)
relation/3184141-132,132,f,Substation,f,relation/3184141,9.13175137,45.344278,IT,POINT (9.13175137 45.344278)
relation/3184141-380,380,f,Substation,f,way/236661269,9.1320186,45.34447137,IT,POINT (9.1320186 45.34447137)
relation/3409816-132,132,f,Substation,f,relation/3409816,11.11580577,46.05850738,IT,POINT (11.11580577 46.05850738)
relation/3621288-132,132,f,Substation,f,relation/3621288,10.75424182,42.92747465,IT,POINT (10.75424182 42.92747465)
relation/3993780-420,420,f,Substation,f,relation/3993780,7.30192666,60.86300937,NO,POINT (7.30192666 60.86300937)
relation/4741777-132,132,f,Substation,f,relation/4741777,9.4526925,45.65668321,IT,POINT (9.4526925 45.65668321)
relation/4741777-380,380,f,Substation,f,way/772234863,9.45301341,45.65674545,IT,POINT (9.45301341 45.65674545)
relation/5378910-132,132,f,Substation,f,relation/5378910,7.19026494,46.97435828,CH,POINT (7.19026494 46.97435828)
relation/5378910-220,220,f,Substation,f,relation/5378910,7.19053313,46.97455634,CH,POINT (7.19053313 46.97455634)
relation/6081310-400,400,f,Substation,f,relation/6081310,15.17950904,60.52950722,SE,POINT (15.17950904 60.52950722)
relation/6277789-132,132,f,Substation,f,relation/6160488,10.26386812,45.57937007,IT,POINT (10.26386812 45.57937007)
relation/6277789-380,380,f,Substation,f,relation/6277789,10.26418948,45.57942986,IT,POINT (10.26418948 45.57942986)
relation/6301099-220,220,f,Substation,f,relation/6301099,10.95469069,46.52731784,IT,POINT (10.95469069 46.52731784)
relation/6321109-132,132,f,Substation,f,relation/6321109,9.89687645,45.97554821,IT,POINT (9.89687645 45.97554821)
relation/6329325-220,220,f,Substation,f,relation/6329325,-0.61407913,41.97631913,ES,POINT (-0.61407913 41.97631913)
relation/7107330-220,220,f,Substation,f,relation/7107330,16.27603916,60.53319107,SE,POINT (16.27603916 60.53319107)
relation/7108546-220,220,f,Substation,f,relation/7108546,16.41119136,60.3114028,SE,POINT (16.41119136 60.3114028)
relation/7123679-132,132,f,Substation,f,relation/7123680,16.70991636,60.9421618,SE,POINT (16.70991636 60.9421618)
relation/7123679-220,220,f,Substation,f,relation/7123679,16.71034403,60.94233368,SE,POINT (16.71034403 60.94233368)
relation/7222461-150,150,f,Substation,f,relation/7222461,4.17586102,50.3990779,BE,POINT (4.17586102 50.3990779)
relation/7228662-132,132,f,Substation,f,relation/7228662,16.50525102,61.27011751,SE,POINT (16.50525102 61.27011751)
relation/7313829-220,220,f,Substation,f,relation/7313829,16.98992794,60.604066,SE,POINT (16.98992794 60.604066)
relation/7313829-400,400,f,Substation,f,relation/7313812,16.99035258,60.60423703,SE,POINT (16.99035258 60.60423703)
relation/7319976-220,220,f,Substation,f,relation/7319976,17.05511082,60.66763624,SE,POINT (17.05511082 60.66763624)
relation/7578992-220,220,f,Substation,f,relation/7578992,5.47168476,50.54020502,BE,POINT (5.47168476 50.54020502)
relation/7578992-380,380,f,Substation,f,relation/7578992,5.47196518,50.54040709,BE,POINT (5.47196518 50.54040709)
relation/7650368-132,132,f,Substation,f,relation/7650368,-0.50013029,51.93291611,GB,POINT (-0.50013029 51.93291611)
relation/7650368-400,400,f,Substation,f,relation/7650368,-0.49986894,51.93313187,GB,POINT (-0.49986894 51.93313187)
relation/7728111-132,132,f,Substation,f,relation/7728111,10.22266239,45.71492948,IT,POINT (10.22266239 45.71492948)
relation/7802012-300,300,f,Substation,f,relation/7802012,6.01253367,60.88840151,NO,POINT (6.01253367 60.88840151)
relation/7805329-300,300,f,Substation,f,relation/7805329,6.33124235,60.1323191,NO,POINT (6.33124235 60.1323191)
relation/7809753-300,300,f,Substation,f,relation/7809753,5.76629113,59.8622748,NO,POINT (5.76629113 59.8622748)
relation/7809978-132,132,f,Substation,f,relation/7809978,6.41803779,60.43227411,NO,POINT (6.41803779 60.43227411)
relation/7809979-132,132,f,Substation,f,relation/7809979,6.1014776,60.37188102,NO,POINT (6.1014776 60.37188102)
relation/7812776-420,420,f,Substation,f,relation/7812776,8.18366599,60.62601751,NO,POINT (8.18366599 60.62601751)
relation/7814748-300,300,f,Substation,f,relation/7814748,7.24583173,61.43785426,NO,POINT (7.24583173 61.43785426)
relation/7822777-132,132,f,Substation,f,relation/7822777,6.55615546,61.34691254,NO,POINT (6.55615546 61.34691254)
relation/7822779-132,132,f,Substation,f,relation/7822779,6.38557709,61.52282433,NO,POINT (6.38557709 61.52282433)
relation/7823781-132,132,f,Substation,f,relation/7823781,5.89703339,61.46111937,NO,POINT (5.89703339 61.46111937)
relation/7826009-132,132,f,Substation,f,relation/7826009,5.775852,61.32701627,NO,POINT (5.775852 61.32701627)
relation/7830809-132,132,f,Substation,f,relation/7830809,6.21994997,62.1633265,NO,POINT (6.21994997 62.1633265)
relation/7833928-132,132,f,Substation,f,relation/7833928,5.84858945,62.26301292,NO,POINT (5.84858945 62.26301292)
relation/7836216-132,132,f,Substation,f,relation/7836216,7.42259183,62.23182686,NO,POINT (7.42259183 62.23182686)
relation/7836646-132,132,f,Substation,f,relation/7836646,7.10208024,62.57332343,NO,POINT (7.10208024 62.57332343)
relation/7837848-220,220,f,Substation,f,relation/7837848,10.51200004,46.00713233,IT,POINT (10.51200004 46.00713233)
relation/7838162-132,132,f,Substation,f,relation/7838162,7.75813944,62.52134898,NO,POINT (7.75813944 62.52134898)
relation/7838302-132,132,f,Substation,f,relation/7838302,7.29304529,62.77956668,NO,POINT (7.29304529 62.77956668)
relation/7838303-132,132,f,Substation,f,relation/7838303,7.56718684,62.79935681,NO,POINT (7.56718684 62.79935681)
relation/7839089-132,132,f,Substation,f,relation/7839089,7.11059015,62.85903435,NO,POINT (7.11059015 62.85903435)
relation/7839089-420,420,f,Substation,f,relation/7839089,7.11098617,62.85923324,NO,POINT (7.11098617 62.85923324)
relation/7839091-132,132,f,Substation,f,relation/7839091,7.17070682,62.85846122,NO,POINT (7.17070682 62.85846122)
relation/7839720-132,132,f,Substation,f,relation/7839720,8.52278689,62.66383764,NO,POINT (8.52278689 62.66383764)
relation/7839720-300,300,f,Substation,f,relation/7839720,8.52315165,62.66367559,NO,POINT (8.52315165 62.66367559)
relation/7839720-420,420,f,Substation,f,relation/7839720,8.52327124,62.66390299,NO,POINT (8.52327124 62.66390299)
relation/7842286-300,300,f,Substation,f,relation/7842286,9.31263195,61.48310751,NO,POINT (9.31263195 61.48310751)
relation/7842598-132,132,f,Substation,f,relation/7842598,12.40821562,41.96629436,IT,POINT (12.40821562 41.96629436)
relation/7842598-150,150,f,Substation,f,relation/7842861,12.40847806,41.96647982,IT,POINT (12.40847806 41.96647982)
relation/7845549-300,300,f,Substation,f,relation/7845549,7.81856075,61.05935197,NO,POINT (7.81856075 61.05935197)
relation/7847764-420,420,f,Substation,f,relation/7847764,8.57659171,60.43755651,NO,POINT (8.57659171 60.43755651)
relation/7851611-132,132,f,Substation,f,relation/7851610,9.06972357,60.60599024,NO,POINT (9.06972357 60.60599024)
relation/7851611-300,300,f,Substation,f,relation/7851611,9.07010428,60.60618368,NO,POINT (9.07010428 60.60618368)
relation/7852285-132,132,f,Substation,f,relation/7852285,9.04808024,61.15750507,NO,POINT (9.04808024 61.15750507)
relation/7854480-132,132,f,Substation,f,relation/7854480,9.00033539,60.23881692,NO,POINT (9.00033539 60.23881692)
relation/7854485-300,300,f,Substation,f,relation/7854485,8.96168649,60.26680941,NO,POINT (8.96168649 60.26680941)
relation/7854485-420,420,f,Substation,f,relation/7854485,8.96206273,60.2670031,NO,POINT (8.96206273 60.2670031)
relation/7858702-132,132,f,Substation,f,relation/7858702,9.89748696,60.6485144,NO,POINT (9.89748696 60.6485144)
relation/7858703-132,132,f,Substation,f,relation/7858703,9.37954532,60.91687631,NO,POINT (9.37954532 60.91687631)
relation/7858707-132,132,f,Substation,f,relation/7858707,9.30064185,60.95713334,NO,POINT (9.30064185 60.95713334)
relation/7859164-132,132,f,Substation,f,relation/7859164,10.05809755,60.99462364,NO,POINT (10.05809755 60.99462364)
relation/7859166-132,132,f,Substation,f,relation/7859166,10.11262403,60.82050096,NO,POINT (10.11262403 60.82050096)
relation/7867734-132,132,f,Substation,f,relation/7867734,10.23643833,60.18287026,NO,POINT (10.23643833 60.18287026)
relation/7871517-132,132,f,Substation,f,relation/7871517,9.84752301,59.71765294,NO,POINT (9.84752301 59.71765294)
relation/7871517-300,300,f,Substation,f,way/287115458,9.84789821,59.71784421,NO,POINT (9.84789821 59.71784421)
relation/7872518-132,132,f,Substation,f,relation/7872518,0.57562627,51.8658727,GB,POINT (0.57562627 51.8658727)
relation/7872518-400,400,f,Substation,f,relation/7872518,0.57589231,51.86608611,GB,POINT (0.57589231 51.86608611)
relation/7872639-132,132,f,Substation,f,relation/7872639,0.72306429,52.23987474,GB,POINT (0.72306429 52.23987474)
relation/7873198-132,132,f,Substation,f,relation/7873198,-2.60524784,50.94977893,GB,POINT (-2.60524784 50.94977893)
relation/7877635-132,132,f,Substation,f,relation/7877635,9.25835894,59.58169233,NO,POINT (9.25835894 59.58169233)
relation/7879831-132,132,f,Substation,f,relation/7879831,-3.95881411,51.68582842,GB,POINT (-3.95881411 51.68582842)
relation/7879831-275,275,f,Substation,f,relation/7879831,-3.95850201,51.68569825,GB,POINT (-3.95850201 51.68569825)
relation/7879831-400,400,f,Substation,f,relation/7879831,-3.95847537,51.68593055,GB,POINT (-3.95847537 51.68593055)
relation/7879875-132,132,f,Substation,f,relation/7879875,8.59669442,59.87714424,NO,POINT (8.59669442 59.87714424)
...
relation/7928148,500,t,Substation,f,relation/7928148,7.899684218401868,58.25972533676882,NO,POINT (7.899684218401868 58.25972533676882)
relation/7928148-132,132,f,Substation,f,relation/7928147,7.89943588,58.25975639,NO,POINT (7.89943588 58.25975639)
relation/7928148-420,420,f,Substation,f,relation/7928148,7.89985899,58.25982347,NO,POINT (7.89985899 58.25982347)
relation/7933294-380,380,f,Substation,f,relation/7933294,10.33214684,46.80485204,CH,POINT (10.33214684 46.80485204)
relation/7953459-150,150,f,Substation,f,relation/7953459,12.58994473,41.91696365,IT,POINT (12.58994473 41.91696365)
relation/8087295-132,132,f,Substation,f,relation/8087295,-3.75364325,58.57565414,GB,POINT (-3.75364325 58.57565414)
relation/8087295-275,275,f,Substation,f,relation/8087295,-3.75335861,58.57587739,GB,POINT (-3.75335861 58.57587739)
relation/8098761-150,150,f,Substation,f,relation/8098761,12.51725408,41.82163226,IT,POINT (12.51725408 41.82163226)
relation/8107040-132,132,f,Substation,f,relation/8107040,-1.10552142,41.48325443,ES,POINT (-1.10552142 41.48325443)
relation/8160182-132,132,f,Substation,f,relation/8160182,-2.53702872,51.73653534,GB,POINT (-2.53702872 51.73653534)
relation/8172955-150,150,f,Substation,f,relation/8172955,12.21637363,41.85588104,IT,POINT (12.21637363 41.85588104)
relation/8177974-132,132,f,Substation,f,relation/8177974,8.01667676,58.16236568,NO,POINT (8.01667676 58.16236568)
relation/8182024-150,150,f,Substation,f,relation/8182024,12.69876762,41.88898682,IT,POINT (12.69876762 41.88898682)
relation/8182117-420,420,f,Substation,f,relation/8182117,7.24961636,59.34605485,NO,POINT (7.24961636 59.34605485)
relation/8193470-300,300,f,Substation,f,relation/8193470,6.89047269,58.27891307,NO,POINT (6.89047269 58.27891307)
relation/8196063-300,300,f,Substation,f,relation/8196063,9.84198267,61.58156178,NO,POINT (9.84198267 61.58156178)
relation/8198185-132,132,f,Substation,f,relation/8198185,10.36315986,60.64887175,NO,POINT (10.36315986 60.64887175)
relation/8200196-132,132,f,Substation,f,relation/8200196,10.67138349,60.78684103,NO,POINT (10.67138349 60.78684103)
relation/8203850-132,132,f,Substation,f,relation/8203850,10.48322315,45.53385963,IT,POINT (10.48322315 45.53385963)
relation/8204366-132,132,f,Substation,f,relation/8204366,10.60675567,60.7093148,NO,POINT (10.60675567 60.7093148)
relation/8205422-132,132,f,Substation,f,relation/8205422,11.0779406,60.43355536,NO,POINT (11.0779406 60.43355536)
relation/8205424-132,132,f,Substation,f,relation/8205424,10.87605507,60.65159962,NO,POINT (10.87605507 60.65159962)
relation/8206955-132,132,f,Substation,f,relation/8206955,10.57695362,60.28862979,NO,POINT (10.57695362 60.28862979)
relation/8206955-300,300,f,Substation,f,relation/8206955,10.57733935,60.28881915,NO,POINT (10.57733935 60.28881915)
relation/8206957-132,132,f,Substation,f,relation/8206957,10.54139302,60.39370012,NO,POINT (10.54139302 60.39370012)
relation/8209417-132,132,f,Substation,f,relation/8209417,10.61660105,62.18687981,NO,POINT (10.61660105 62.18687981)
relation/8209705-132,132,f,Substation,f,relation/8209705,10.78337084,62.28262072,NO,POINT (10.78337084 62.28262072)
relation/8211981-132,132,f,Substation,f,relation/8211981,11.12175193,61.81291079,NO,POINT (11.12175193 61.81291079)
relation/8211981-300,300,f,Substation,f,relation/8211981,11.12215951,61.8130988,NO,POINT (11.12215951 61.8130988)
relation/8218324-132,132,f,Substation,f,relation/8218324,11.60340737,60.82935991,NO,POINT (11.60340737 60.82935991)
relation/8219694-150,150,f,Substation,f,relation/8219694,12.64674671,41.91627802,IT,POINT (12.64674671 41.91627802)
relation/8222072-132,132,f,Substation,f,relation/8222072,11.97777296,60.19514471,NO,POINT (11.97777296 60.19514471)
relation/8226032-132,132,f,Substation,f,relation/8226032,11.04388836,60.82780105,NO,POINT (11.04388836 60.82780105)
relation/8238307-150,150,f,Substation,f,relation/8238307,12.51711905,41.69076339,IT,POINT (12.51711905 41.69076339)
relation/8239198-300,300,f,Substation,f,relation/8239198,10.93330351,59.92992579,NO,POINT (10.93330351 59.92992579)
relation/8243549-132,132,f,Substation,f,relation/8243549,10.82058839,59.8895288,NO,POINT (10.82058839 59.8895288)
relation/8251802-132,132,f,Substation,f,relation/8251802,11.1739633,59.5399342,NO,POINT (11.1739633 59.5399342)
relation/8269874-132,132,f,Substation,f,relation/8269874,30.03325198,69.72289111,NO,POINT (30.03325198 69.72289111)
relation/8269874-150,150,f,Substation,f,way/552974719,30.03394394,69.72301844,NO,POINT (30.03394394 69.72301844)
relation/8271838-132,132,f,Substation,f,relation/8271838,29.76401832,70.07876967,NO,POINT (29.76401832 70.07876967)
relation/8274347-132,132,f,Substation,f,relation/8274347,28.18752029,70.19446082,NO,POINT (28.18752029 70.19446082)
relation/8276522-132,132,f,Substation,f,relation/8276522,23.80232076,69.71969708,NO,POINT (23.80232076 69.71969708)
relation/8277461-132,132,f,Substation,f,relation/8277461,23.96991564,70.48810394,NO,POINT (23.96991564 70.48810394)
relation/8278085-132,132,f,Substation,f,relation/8278085,23.37339709,69.95174765,NO,POINT (23.37339709 69.95174765)
relation/8279949-132,132,f,Substation,f,relation/8279949,23.28530771,69.96630844,NO,POINT (23.28530771 69.96630844)
relation/8280181-132,132,f,Substation,f,relation/8280181,22.05449485,69.71998027,NO,POINT (22.05449485 69.71998027)
relation/8280502-132,132,f,Substation,f,relation/8280502,21.3141308,69.62243118,NO,POINT (21.3141308 69.62243118)
relation/8280563-132,132,f,Substation,f,relation/8280563,20.27135664,69.58930943,NO,POINT (20.27135664 69.58930943)
relation/8280652-132,132,f,Substation,f,relation/8280652,18.97419772,69.63934892,NO,POINT (18.97419772 69.63934892)
relation/8280921-132,132,f,Substation,f,relation/8280921,18.99365302,69.54416099,NO,POINT (18.99365302 69.54416099)
relation/8281952-132,132,f,Substation,f,relation/8281952,18.0725939,69.56874267,NO,POINT (18.0725939 69.56874267)
relation/8283080-132,132,f,Substation,f,relation/8283080,19.24373082,69.21023263,NO,POINT (19.24373082 69.21023263)
relation/8285305-132,132,f,Substation,f,relation/8285305,18.0834074,69.22115553,NO,POINT (18.0834074 69.22115553)
relation/8288539-132,132,f,Substation,f,relation/8288539,15.88168731,68.50684164,NO,POINT (15.88168731 68.50684164)
relation/8288762-132,132,f,Substation,f,relation/8288762,14.9009156,68.55796097,NO,POINT (14.9009156 68.55796097)
relation/8288766-132,132,f,Substation,f,relation/8288766,14.85212069,68.51057271,NO,POINT (14.85212069 68.51057271)
relation/8289305-132,132,f,Substation,f,relation/8289305,15.38458616,68.71219632,NO,POINT (15.38458616 68.71219632)
relation/8292077-132,132,f,Substation,f,relation/8292077,16.25429198,68.75820581,NO,POINT (16.25429198 68.75820581)
relation/8292079-132,132,f,Substation,f,relation/8292079,16.32452321,68.76589787,NO,POINT (16.32452321 68.76589787)
relation/8292614-132,132,f,Substation,f,relation/8292614,17.46333009,68.44375112,NO,POINT (17.46333009 68.44375112)
relation/8293880-132,132,f,Substation,f,relation/8293880,16.78273038,68.32183883,NO,POINT (16.78273038 68.32183883)
relation/8293948-420,420,f,Substation,f,relation/8293948,15.99031158,67.62273347,NO,POINT (15.99031158 67.62273347)
relation/8296003-132,132,f,Substation,f,relation/8296003,16.07713271,67.11989246,NO,POINT (16.07713271 67.11989246)
relation/8296010-132,132,f,Substation,f,relation/8296010,15.41904483,67.2713944,NO,POINT (15.41904483 67.2713944)
relation/8296013-132,132,f,Substation,f,relation/8296013,15.5835442,67.36218689,NO,POINT (15.5835442 67.36218689)
relation/8296015-132,132,f,Substation,f,relation/8296015,15.55385561,67.34043703,NO,POINT (15.55385561 67.34043703)
relation/8297300-132,132,f,Substation,f,relation/8297300,14.73849548,67.31927354,NO,POINT (14.73849548 67.31927354)
relation/8298078-132,132,f,Substation,f,relation/8298078,15.38774081,67.08948519,NO,POINT (15.38774081 67.08948519)
relation/8300691-132,132,f,Substation,f,relation/8300691,14.15091273,66.97138997,NO,POINT (14.15091273 66.97138997)
relation/8301304-132,132,f,Substation,f,relation/8301304,13.59910349,66.74896696,NO,POINT (13.59910349 66.74896696)
relation/8301307-132,132,f,Substation,f,relation/8301307,13.93435017,66.81751716,NO,POINT (13.93435017 66.81751716)
relation/8306512-132,132,f,Substation,f,relation/8306512,13.20569135,66.45470192,NO,POINT (13.20569135 66.45470192)
relation/8306711-132,132,f,Substation,f,relation/8306711,13.0649125,66.07957347,NO,POINT (13.0649125 66.07957347)
relation/8307477-132,132,f,Substation,f,relation/8307477,14.15300824,66.32637706,NO,POINT (14.15300824 66.32637706)
relation/8321345-150,150,f,Substation,f,relation/8321345,12.69416346,41.95158023,IT,POINT (12.69416346 41.95158023)
relation/8332571-300,300,f,Substation,f,relation/8332571,6.03200798,58.4950153,NO,POINT (6.03200798 58.4950153)
relation/8429881-150,150,f,Substation,f,relation/8429881,13.68540393,37.50743341,IT,POINT (13.68540393 37.50743341)
relation/8473044-132,132,f,Substation,f,relation/8473044,13.78254815,66.05108092,NO,POINT (13.78254815 66.05108092)
relation/8473044-220,220,f,Substation,f,relation/8473044,13.78252049,66.05088953,NO,POINT (13.78252049 66.05088953)
relation/8473044-300,300,f,Substation,f,relation/8473044,13.78298429,66.05087911,NO,POINT (13.78298429 66.05087911)
relation/8473044-420,420,f,Substation,f,relation/8473044,13.78301196,66.0510705,NO,POINT (13.78301196 66.0510705)
relation/8474078-132,132,f,Substation,f,relation/8474078,13.80112263,65.88735392,NO,POINT (13.80112263 65.88735392)
relation/8476872-132,132,f,Substation,f,relation/8476872,13.29036954,65.8519135,NO,POINT (13.29036954 65.8519135)
relation/8476872-300,300,f,Substation,f,relation/8476872,13.29085386,65.85209588,NO,POINT (13.29085386 65.85209588)
relation/8476873-132,132,f,Substation,f,relation/8476873,13.19948209,65.85059755,NO,POINT (13.19948209 65.85059755)
relation/8481866-300,300,f,Substation,f,relation/8481866,13.42663614,65.53456591,NO,POINT (13.42663614 65.53456591)
relation/8482013-132,132,f,Substation,f,relation/8482013,12.79203246,65.20461789,NO,POINT (12.79203246 65.20461789)
relation/8482013-300,300,f,Substation,f,relation/8482013,12.79250175,65.20480162,NO,POINT (12.79250175 65.20480162)
relation/8482142-132,132,f,Substation,f,relation/8482142,12.76280095,65.26286886,NO,POINT (12.76280095 65.26286886)
relation/8483382-132,132,f,Substation,f,relation/8483382,12.27588293,65.51942741,NO,POINT (12.27588293 65.51942741)
relation/8483385-132,132,f,Substation,f,relation/8483385,12.52736572,65.3945994,NO,POINT (12.52736572 65.3945994)
relation/8483600-132,132,f,Substation,f,relation/8483600,12.73002648,65.80354261,NO,POINT (12.73002648 65.80354261)
relation/8483936-132,132,f,Substation,f,relation/8483936,12.55940489,65.96477216,NO,POINT (12.55940489 65.96477216)
relation/8488332-132,132,f,Substation,f,relation/8488332,12.8366578,64.70421066,NO,POINT (12.8366578 64.70421066)
relation/8488332-300,300,f,Substation,f,relation/8488332,12.8370233,64.70403825,NO,POINT (12.8370233 64.70403825)
relation/8488332-420,420,f,Substation,f,relation/8488332,12.83718633,64.7042621,NO,POINT (12.83718633 64.7042621)
relation/8488753-220,220,f,Substation,f,relation/8488753,13.75970446,64.64826228,SE,POINT (13.75970446 64.64826228)
relation/8492197-132,132,f,Substation,f,relation/8492197,12.45480082,64.54355354,NO,POINT (12.45480082 64.54355354)
relation/8512586-150,150,f,Substation,f,relation/8512586,12.37565646,41.93675986,IT,POINT (12.37565646 41.93675986)
relation/8519996-132,132,f,Substation,f,relation/8519996,10.78827699,63.39344122,NO,POINT (10.78827699 63.39344122)
relation/8519998-132,132,f,Substation,f,relation/8519998,10.66776575,63.39705298,NO,POINT (10.66776575 63.39705298)
relation/8520950-132,132,f,Substation,f,relation/8520950,10.4398054,63.39185358,NO,POINT (10.4398054 63.39185358)
relation/8520950-300,300,f,Substation,f,relation/8520950,10.44023039,63.39204367,NO,POINT (10.44023039 63.39204367)
relation/8529286-132,132,f,Substation,f,relation/8529286,11.40688035,62.56332232,NO,POINT (11.40688035 62.56332232)
relation/8534189-132,132,f,Substation,f,relation/8534189,10.01279233,62.80237759,NO,POINT (10.01279233 62.80237759)
relation/8535593-132,132,f,Substation,f,relation/8535593,9.33070226,62.58274478,NO,POINT (9.33070226 62.58274478)
relation/8536118-132,132,f,Substation,f,relation/8536118,9.70839498,62.92205275,NO,POINT (9.70839498 62.92205275)
relation/8538736-132,132,f,Substation,f,relation/8538736,9.51719641,63.40055591,NO,POINT (9.51719641 63.40055591)
relation/8538817-132,132,f,Substation,f,relation/8538817,9.7122117,63.62639444,NO,POINT (9.7122117 63.62639444)
relation/8682110-132,132,f,Substation,f,relation/8682110,6.75481484,61.21582638,NO,POINT (6.75481484 61.21582638)
relation/8721337-300,300,f,Substation,f,relation/8721337,6.60317679,59.327349,NO,POINT (6.60317679 59.327349)
relation/8733235-150,150,f,Substation,f,relation/8733235,13.40866914,42.35924539,IT,POINT (13.40866914 42.35924539)
relation/8771038-132,132,f,Substation,f,relation/8771038,12.73332273,42.85353857,IT,POINT (12.73332273 42.85353857)
relation/8799993-132,132,f,Substation,f,relation/8799993,-0.2394135,51.73631519,GB,POINT (-0.2394135 51.73631519)
relation/8810106-132,132,f,Substation,f,relation/8810106,6.23997523,62.43329781,NO,POINT (6.23997523 62.43329781)
relation/8810108-132,132,f,Substation,f,relation/8810108,6.02311395,62.35962012,NO,POINT (6.02311395 62.35962012)
relation/8810204-132,132,f,Substation,f,relation/8810204,6.1017526,62.18098506,NO,POINT (6.1017526 62.18098506)
relation/8812587-132,132,f,Substation,f,relation/8812587,9.14350222,63.31597084,NO,POINT (9.14350222 63.31597084)
relation/8812588-132,132,f,Substation,f,relation/8812588,9.14902559,63.3051789,NO,POINT (9.14902559 63.3051789)
relation/8814880-132,132,f,Substation,f,relation/8814880,8.76426305,62.97311658,NO,POINT (8.76426305 62.97311658)
relation/8820859-132,132,f,Substation,f,relation/8820859,8.53090483,63.25663367,NO,POINT (8.53090483 63.25663367)
relation/8820981-132,132,f,Substation,f,relation/8820981,-2.57066347,51.4855717,GB,POINT (-2.57066347 51.4855717)
relation/8820982-132,132,f,Substation,f,relation/8820982,-4.98589291,51.71028273,GB,POINT (-4.98589291 51.71028273)
relation/8822265-132,132,f,Substation,f,relation/8822265,8.21052912,63.222336,NO,POINT (8.21052912 63.222336)
relation/8824342-275,275,f,Substation,f,relation/8824342,-2.92514722,53.41893425,GB,POINT (-2.92514722 53.41893425)
relation/8825748-132,132,f,Substation,f,relation/8825748,7.8279169,63.0922315,NO,POINT (7.8279169 63.0922315)
relation/8825750-132,132,f,Substation,f,relation/8825750,7.80738141,63.10687131,NO,POINT (7.80738141 63.10687131)
relation/8825751-132,132,f,Substation,f,relation/8825751,7.75272818,63.10986075,NO,POINT (7.75272818 63.10986075)
relation/8834783-132,132,f,Substation,f,relation/8834783,5.36760472,60.37253603,NO,POINT (5.36760472 60.37253603)
relation/8834935-132,132,f,Substation,f,relation/8834935,5.45677295,60.3945161,NO,POINT (5.45677295 60.3945161)
relation/8834935-300,300,f,Substation,f,relation/8834935,5.45712986,60.3947188,NO,POINT (5.45712986 60.3947188)
relation/8835181-132,132,f,Substation,f,relation/8835181,5.3385973,60.46571877,NO,POINT (5.3385973 60.46571877)
relation/8835295-132,132,f,Substation,f,relation/8835295,5.33236988,60.43163787,NO,POINT (5.33236988 60.43163787)
relation/8835425-132,132,f,Substation,f,relation/8835425,5.26940373,60.38613976,NO,POINT (5.26940373 60.38613976)
relation/8835473-132,132,f,Substation,f,relation/8835473,5.2953258,60.34764164,NO,POINT (5.2953258 60.34764164)
relation/8835482-132,132,f,Substation,f,relation/8835482,5.23616212,60.36486569,NO,POINT (5.23616212 60.36486569)
relation/8835529-132,132,f,Substation,f,relation/8835529,5.38010841,60.3286296,NO,POINT (5.38010841 60.3286296)
relation/8836349-132,132,f,Substation,f,relation/8836349,5.26768084,60.30264833,NO,POINT (5.26768084 60.30264833)
relation/8836351-132,132,f,Substation,f,relation/8836351,5.34191871,60.28716957,NO,POINT (5.34191871 60.28716957)
relation/8836351-300,300,f,Substation,f,relation/8836351,5.34227381,60.28737254,NO,POINT (5.34227381 60.28737254)
relation/8837348-132,132,f,Substation,f,relation/8837348,5.47249037,60.19191992,NO,POINT (5.47249037 60.19191992)
relation/8837899-132,132,f,Substation,f,relation/8837899,5.13234983,60.36559896,NO,POINT (5.13234983 60.36559896)
relation/8837899-300,300,f,Substation,f,relation/8837899,5.13270447,60.36580246,NO,POINT (5.13270447 60.36580246)
relation/8839231-132,132,f,Substation,f,relation/8839231,4.99857378,60.40415883,NO,POINT (4.99857378 60.40415883)
relation/8839877-132,132,f,Substation,f,relation/8839877,5.2027322,60.42359436,NO,POINT (5.2027322 60.42359436)
relation/8840346-132,132,f,Substation,f,relation/8840346,5.27914922,60.61030659,NO,POINT (5.27914922 60.61030659)
...